LAMMPS (7 Feb 2024 - Update 1)
# LAMMPS Input Script

# Initialization
units           lj
atom_style      molecular
boundary        m m m  # Non-periodic boundary conditions in all directions

bond_style      harmonic
angle_style 	harmonic

# Atom Definition
variable filename string "pattern2_0.25_3.0_2.5_30.0_50.0"
read_data       output/lammps_data/pattern2_0.25_3.0_2.5_30.0_50.0.data
Reading data file ...
  orthogonal box = (-0.75 149.25 -3.75) to (150.75 300.75 3.75)
  reading atoms ...
  17232 atoms
  scanning bonds ...
  scanning angles ...
  reading bonds ...
  17302 bonds
  reading angles ...
  17154 angles
Finding 1-2 1-3 1-4 neighbors ...
     6 = max # of 1-2 neighbors
    15 = max # of 1-3 neighbors
    54 = max # of 1-4 neighbors
    22 = max # of special neighbors

# Force Field Settings
pair_style soft 1.0
pair_coeff * * 200.0
comm_modify cutoff 4.1

# Dump command to output atom positions to a file
compute			perAtomPE all pe/atom
dump myDump all custom 10000 output/simulations/pattern2_0.25_3.0_2.5_30.0_50.0.lammpstrj id type x y z fx fy fz c_perAtomPE

# Fixes
region left_block block INF 0.75 INF INF INF INF units box
region right_block block 149.25 INF INF INF INF INF units box
region bottom_block block INF INF INF 150.75 INF INF units box
region top_block block INF INF 299.25 INF INF INF units box
group left_wall region left_block
103 atoms in group left_wall
group right_wall region right_block
68 atoms in group right_wall
group bottom_wall region bottom_block
85 atoms in group bottom_wall
group top_wall region top_block
89 atoms in group top_wall
group boundary union left_wall right_wall bottom_wall top_wall
333 atoms in group boundary

fix freezef boundary setforce 0.0 0.0 0.0
fix dragU all viscous 0.1
fix nve_all all nve

# Minimization to relax initial configuration
minimize 1.0e-6 1.0e-7 10000 100000
Generated 0 of 1 mixed pair_coeff terms from geometric mixing rule
Step          Temp          E_pair         E_mol          TotEng         Press          Volume
0   0              0              0.66925941     0.66925941    -0.070603246    172141.88
Loop time of 0.674079 on 1 procs for 52 steps with 17232 atoms

Minimization stats:
  Stopping criterion = energy tolerance
  Energy initial, next-to-last, final =
  Force two-norm initial, final = 459.57829 345.33176
  Force max component initial, final = 96.680664 184.37921
  Final line search alpha, max atom move = 0.0010698777 0.19726321
  Iterations, force evaluations = 52 142

neigh_modify exclude molecule/intra all
neigh_modify every 100

# Integrator Settings
timestep        0.001
thermo          10000
thermo_style    custom step temp pe ke etotal

# Run

run 100000
Generated 0 of 1 mixed pair_coeff terms from geometric mixing rule
Step          Temp          PotEng         KinEng         TotEng
52   0              0.60657751     0              0.60657751
Averages over the last 6 of 12 rows, steps 60000 to 100052:
Temp PotEng KinEng TotEng
5.87673e-05 0.396855 8.81459e-05 0.396943
Loop time of 263.929 on 1 procs for 100000 steps with 17232 atoms

write_restart output/simulations/sim1.restart
System init for write_restart ...
Generated 0 of 1 mixed pair_coeff terms from geometric mixing rule
